<configuration>

  <input>
    <net-file value="city.net.xml"/>
    <route-files value="routes.rou.xml"/>
    <additional-files value="rsu.add.xml,people.add.xml"/>
  </input>

  <time>
    <begin value="0"/>
    <end value="300"/>
  </time>

</configuration>
