<?xml version="1.0" encoding="UTF-8"?>

<!-- generated on 2026-01-04T10:56:04.336340+05:30 by Eclipse SUMO netedit 1.25.0
<neteditConfiguration xmlns:xsi="http://www.w3.org/2001/XMLSchema-instance" xsi:noNamespaceSchemaLocation="http://sumo.dlr.de/xsd/neteditConfiguration.xsd">

    <input>
        <sumo-net-file value="D:\1rescuemesh\new.net.xml"/>
    </input>

    <output>
        <output-file value="D:\1rescuemesh\new.net.xml"/>
    </output>

    <processing>
        <offset.disable-normalization value="true"/>
    </processing>

    <junctions>
        <no-turnarounds value="true"/>
    </junctions>

    <netedit>
        <new-network value="false"/>
    </netedit>

</neteditConfiguration>
-->

<net version="1.20" junctionCornerDetail="5" limitTurnSpeed="5.50" xmlns:xsi="http://www.w3.org/2001/XMLSchema-instance" xsi:noNamespaceSchemaLocation="http://sumo.dlr.de/xsd/net_file.xsd">

    <location netOffset="0.00,0.00" convBoundary="-89.50,-4.12,52.20,42.05" origBoundary="10000000000.00,10000000000.00,-10000000000.00,-10000000000.00" projParameter="!"/>

    <edge id=":J0_0" function="internal">
        <lane id=":J0_0_0" index="0" speed="4.68" length="7.77" shape="-85.75,36.19 -88.45,35.86 -89.43,35.23 -88.71,34.32 -86.27,33.11"/>
    </edge>
    <edge id=":J4_0" function="internal">
        <lane id=":J4_0_0" index="0" speed="3.96" length="3.73" shape="49.81,27.65 50.72,26.99 51.03,26.32 50.77,25.62 49.92,24.90"/>
    </edge>

    <edge id="E1" from="J0" to="J2" priority="-1" spreadType="center">
        <lane id="E1_0" index="0" speed="13.89" length="95.97" shape="-86.27,33.11 2.55,-3.24"/>
    </edge>
    <edge id="E3" from="J3" to="J0" priority="-1" spreadType="center" shape="23.16,42.05 -89.50,35.99">
        <lane id="E3_0" index="0" speed="13.89" length="107.12" shape="21.21,41.95 -85.75,36.19"/>
    </edge>
    <edge id="E5" from="J3" to="J4" priority="-1" spreadType="center">
        <lane id="E5_0" index="0" speed="13.89" length="28.34" shape="24.88,41.12 49.81,27.65"/>
    </edge>
    <edge id="E6" from="J4" to="J2" priority="-1" spreadType="center">
        <lane id="E6_0" index="0" speed="13.89" length="51.39" shape="49.92,24.90 6.67,-2.86"/>
    </edge>

    <junction id="J0" type="priority" x="-89.39" y="34.39" incLanes="E3_0" intLanes=":J0_0_0" shape="-85.84,37.79 -85.66,34.59 -86.88,31.63 -90.51,33.30 -92.62,34.71 -93.20,35.87 -92.27,36.77 -89.81,37.41">
        <request index="0" response="0" foes="0" cont="0"/>
    </junction>
    <junction id="J2" type="dead_end" x="4.71" y="-4.12" incLanes="E6_0 E1_0" intLanes="" shape="5.81,-1.51 7.54,-4.21 5.73,-5.02 4.81,-5.19 3.87,-5.19 2.91,-5.04 1.95,-4.72 3.16,-1.76 4.07,-1.98 4.51,-1.98 4.95,-1.90 5.38,-1.75"/>
    <junction id="J3" type="dead_end" x="23.16" y="42.05" incLanes="" intLanes="" shape="25.64,42.53 24.12,39.72 23.14,40.20 22.77,40.32 22.39,40.37 21.92,40.38 21.30,40.35 21.13,43.54 22.87,43.58 23.48,43.50 24.08,43.31 24.76,43.00"/>
    <junction id="J4" type="priority" x="52.20" y="26.36" incLanes="E5_0" intLanes=":J4_0_0" shape="50.78,23.55 49.05,26.24 50.57,29.06 52.72,27.30 53.01,26.39 52.79,25.46 52.04,24.52">
        <request index="0" response="0" foes="0" cont="0"/>
    </junction>

    <connection from="E3" to="E1" fromLane="0" toLane="0" via=":J0_0_0" dir="l" state="M"/>
    <connection from="E5" to="E6" fromLane="0" toLane="0" via=":J4_0_0" dir="r" state="M"/>

    <connection from=":J0_0" to="E1" fromLane="0" toLane="0" dir="l" state="M"/>
    <connection from=":J4_0" to="E6" fromLane="0" toLane="0" dir="r" state="M"/>

</net>
